/*--------------------------------*- C++ -*----------------------------------*\
| =========                 |                                                 |
| \\      /  F ield         | OpenFOAM: The Open Source CFD Toolbox           |
|  \\    /   O peration     | Version:  v2012                                 |
|   \\  /    A nd           | Website:  www.openfoam.com                      |
|    \\/     M anipulation  |                                                 |
\*---------------------------------------------------------------------------*/
FoamFile
{
    version     2.0;
    format      ascii;
    class       dictionary;
    location    "system";
    object      fvSolution;
}
// * * * * * * * * * * * * * * * * * * * * * * * * * * * * * * * * * * * * * //

solvers
{
    p
    {
        solver          GAMG;
        smoother        DICGaussSeidel;
        tolerance       1e-06;
        relTol          0.01;
		nNonOrthogonalCorrectors 0;
    }


    "(U|k|nuTilda|epsilon|omega)"
    {
        solver          PBiCG;
        preconditioner  DILU;
        tolerance       1e-05;
        relTol          0.1;
    }
}


SIMPLE
{
    nNonOrthogonalCorrectors 0;
    consistent      yes;
    pRefCell        0;
    pRefValue       0;
	residualControl
    {
        p               1e-4;
        U               1e-6;
        "(k|epsilon|omega|f|v2)" 1e-5;
    }
}

relaxationFactors
{
	fields
	{
	p 0.7;
	}
    equations
    {
        U           0.9;
        ".*"     0.8;
    }
}


// ************************************************************************* //
