/*--------------------------------*- C++ -*----------------------------------*\
| =========                 |                                                 |
| \\      /  F ield         | OpenFOAM: The Open Source CFD Toolbox           |
|  \\    /   O peration     | Version:  v2012                                 |
|   \\  /    A nd           | Website:  www.openfoam.com                      |
|    \\/     M anipulation  |                                                 |
\*---------------------------------------------------------------------------*/
FoamFile
{
    version     2.0;
    format      ascii;
    class       dictionary;
    location    "constant";
    object      fvOptions;
}
// * * * * * * * * * * * * * * * * * * * * * * * * * * * * * * * * * * * * * //

momentumSource
{
    type            pressureGradientExplicitSource;
    active          on;            //on/off switch
    selectionMode   all;       //cellSet // points //cellZone

    pressureGradientExplicitSourceCoeffs
    {
        fieldNames  (U);
        Ubar        (0.020188 0 0 );
    }
}


// ************************************************************************* //
